IEEE39Case_Simulations/plots/csv/rotor_angle_dev_bus26_julia.csv
t_s,rotor_angle_dev_rad,bus_voltage_angle_dev_rad,angle_source,angle_is_exact_bus_voltage
0.0,0.0,0.0,Vmag_get_voltage_magnitude_series__angle_get_voltage_angle_series,true
0.01,-2.699229728619912e-16,-2.699229728619912e-16,Vmag_get_voltage_magnitude_series__angle_get_voltage_angle_series,true
0.02,-2.636779683484747e-16,-2.636779683484747e-16,Vmag_get_voltage_magnitude_series__angle_get_voltage_angle_series,true
0.03,-2.629840789580824e-16,-2.629840789580824e-16,Vmag_get_voltage_magnitude_series__angle_get_voltage_angle_series,true
0.04,-1.1171619185290451e-16,-1.1171619185290451e-16,Vmag_get_voltage_magnitude_series__angle_get_voltage_angle_series,true
0.05,-1.7347234759772305e-17,-1.7347234759772305e-17,Vmag_get_voltage_magnitude_series__angle_get_voltage_angle_series,true
0.06,-2.0816681711721917e-16,-2.0816681711721917e-16,Vmag_get_voltage_magnitude_series__angle_get_voltage_angle_series,true
0.07,-6.86950496486851e-17,-6.86950496486851e-17,Vmag_get_voltage_magnitude_series__angle_get_voltage_angle_series,true
0.08,-1.269817584414944e-16,-1.269817584414944e-16,Vmag_get_voltage_magnitude_series__angle_get_voltage_angle_series,true
0.09,-9.575673587391374e-17,-9.575673587391374e-17,Vmag_get_voltage_magnitude_series__angle_get_voltage_angle_series,true
0.1,-6.175615574477257e-17,-6.175615574477257e-17,Vmag_get_voltage_magnitude_series__angle_get_voltage_angle_series,true
0.11,-1.4294121442048354e-16,-1.4294121442048354e-16,Vmag_get_voltage_magnitude_series__angle_get_voltage_angle_series,true
0.12,-7.008282842946023e-17,-7.008282842946023e-17,Vmag_get_voltage_magnitude_series__angle_get_voltage_angle_series,true
0.13,-5.828670879283388e-17,-5.828670879283388e-17,Vmag_get_voltage_magnitude_series__angle_get_voltage_angle_series,true
0.14,-2.116362640691722e-16,-2.116362640691722e-16,Vmag_get_voltage_magnitude_series__angle_get_voltage_angle_series,true
0.15,-1.2698175844148278e-16,-1.2698175844148278e-16,Vmag_get_voltage_magnitude_series__angle_get_voltage_angle_series,true
0.16,-1.8943180357664784e-16,-1.8943180357664784e-16,Vmag_get_voltage_magnitude_series__angle_get_voltage_angle_series,true
0.17,-1.1518563880487193e-16,-1.1518563880487193e-16,Vmag_get_voltage_magnitude_series__angle_get_voltage_angle_series,true
0.18,-6.730727086787531e-17,-6.730727086787531e-17,Vmag_get_voltage_magnitude_series__angle_get_voltage_angle_series,true
0.19,-1.0130785099703313e-16,-1.0130785099703313e-16,Vmag_get_voltage_magnitude_series__angle_get_voltage_angle_series,true
0.2,-1.457167719820518e-16,-1.457167719820518e-16,Vmag_get_voltage_magnitude_series__angle_get_voltage_angle_series,true
0.21,-0.10273969817133213,-0.10273969817133213,Vmag_get_voltage_magnitude_series__angle_get_voltage_angle_series,true
0.22,-0.11644690226380348,-0.11644690226380348,Vmag_get_voltage_magnitude_series__angle_get_voltage_angle_series,true
0.23,-0.11546036844222826,-0.11546036844222826,Vmag_get_voltage_magnitude_series__angle_get_voltage_angle_series,true
0.24,-0.11809756355280929,-0.11809756355280929,Vmag_get_voltage_magnitude_series__angle_get_voltage_angle_series,true
0.25,-0.11288279041248411,-0.11288279041248411,Vmag_get_voltage_magnitude_series__angle_get_voltage_angle_series,true
0.26,-0.11232704695287551,-0.11232704695287551,Vmag_get_voltage_magnitude_series__angle_get_voltage_angle_series,true
0.27,-0.11067879916720216,-0.11067879916720216,Vmag_get_voltage_magnitude_series__angle_get_voltage_angle_series,true
0.28,-0.10916469961283695,-0.10916469961283695,Vmag_get_voltage_magnitude_series__angle_get_voltage_angle_series,true
0.29,-0.10751798360931976,-0.10751798360931976,Vmag_get_voltage_magnitude_series__angle_get_voltage_angle_series,true
0.3,-0.10577032881499694,-0.10577032881499694,Vmag_get_voltage_magnitude_series__angle_get_voltage_angle_series,true
0.31,0.006341904911757439,0.006341904911757439,Vmag_get_voltage_magnitude_series__angle_get_voltage_angle_series,true
0.32,-0.0015342265888918325,-0.0015342265888918325,Vmag_get_voltage_magnitude_series__angle_get_voltage_angle_series,true
0.33,-0.004160379645872279,-0.004160379645872279,Vmag_get_voltage_magnitude_series__angle_get_voltage_angle_series,true
0.34,-0.0001710361804365894,-0.0001710361804365894,Vmag_get_voltage_magnitude_series__angle_get_voltage_angle_series,true
0.35,-0.004056621833855669,-0.004056621833855669,Vmag_get_voltage_magnitude_series__angle_get_voltage_angle_series,true
0.36,-0.006952397367466502,-0.006952397367466502,Vmag_get_voltage_magnitude_series__angle_get_voltage_angle_series,true
0.37,-0.010342302273611725,-0.010342302273611725,Vmag_get_voltage_magnitude_series__angle_get_voltage_angle_series,true
0.38,-0.013945232177110512,-0.013945232177110512,Vmag_get_voltage_magnitude_series__angle_get_voltage_angle_series,true
0.39,-0.018056408040665904,-0.018056408040665904,Vmag_get_voltage_magnitude_series__angle_get_voltage_angle_series,true
0.4,-0.02237135744469448,-0.02237135744469448,Vmag_get_voltage_magnitude_series__angle_get_voltage_angle_series,true
0.41,-0.02693627870775292,-0.02693627870775292,Vmag_get_voltage_magnitude_series__angle_get_voltage_angle_series,true
0.42,-0.03167504751513241,-0.03167504751513241,Vmag_get_voltage_magnitude_series__angle_get_voltage_angle_series,true
0.43,-0.036549933153941117,-0.036549933153941117,Vmag_get_voltage_magnitude_series__angle_get_voltage_angle_series,true
0.44,-0.04150810716437451,-0.04150810716437451,Vmag_get_voltage_magnitude_series__angle_get_voltage_angle_series,true
0.45,-0.046512496631082256,-0.046512496631082256,Vmag_get_voltage_magnitude_series__angle_get_voltage_angle_series,true
0.46,-0.05152459898671576,-0.05152459898671576,Vmag_get_voltage_magnitude_series__angle_get_voltage_angle_series,true
0.47,-0.05651157386658661,-0.05651157386658661,Vmag_get_voltage_magnitude_series__angle_get_voltage_angle_series,true
0.48,-0.06144362935911822,-0.06144362935911822,Vmag_get_voltage_magnitude_series__angle_get_voltage_angle_series,true
0.49,-0.06629502076647364,-0.06629502076647364,Vmag_get_voltage_magnitude_series__angle_get_voltage_angle_series,true
0.5,-0.07104362187269142,-0.07104362187269142,Vmag_get_voltage_magnitude_series__angle_get_voltage_angle_series,true
0.51,-0.07567119348734946,-0.07567119348734946,Vmag_get_voltage_magnitude_series__angle_get_voltage_angle_series,true
0.52,-0.08016338385659928,-0.08016338385659928,Vmag_get_voltage_magnitude_series__angle_get_voltage_angle_series,true
0.53,-0.08450977333159976,-0.08450977333159976,Vmag_get_voltage_magnitude_series__angle_get_voltage_angle_series,true
0.54,-0.08870377281106116,-0.08870377281106116,Vmag_get_voltage_magnitude_series__angle_get_voltage_angle_series,true
0.55,-0.09274241621682139,-0.09274241621682139,Vmag_get_voltage_magnitude_series__angle_get_voltage_angle_series,true
0.56,-0.09662604544787974,-0.09662604544787974,Vmag_get_voltage_magnitude_series__angle_get_voltage_angle_series,true
0.57,-0.1003578567541042,-0.1003578567541042,Vmag_get_voltage_magnitude_series__angle_get_voltage_angle_series,true
0.58,-0.10394330905162638,-0.10394330905162638,Vmag_get_voltage_magnitude_series__angle_get_voltage_angle_series,true
0.59,-0.1073894606810061,-0.1073894606810061,Vmag_get_voltage_magnitude_series__angle_get_voltage_angle_series,true
0.6,-0.11070436186425399,-0.11070436186425399,Vmag_get_voltage_magnitude_series__angle_get_voltage_angle_series,true
0.61,-0.11389640891422188,-0.11389640891422188,Vmag_get_voltage_magnitude_series__angle_get_voltage_angle_series,true
0.62,-0.11697380999288841,-0.11697380999288841,Vmag_get_voltage_magnitude_series__angle_get_voltage_angle_series,true
0.63,-0.11994419144581812,-0.11994419144581812,Vmag_get_voltage_magnitude_series__angle_get_voltage_angle_series,true
0.64,-0.12281430754298955,-0.12281430754298955,Vmag_get_voltage_magnitude_series__angle_get_voltage_angle_series,true
0.65,-0.1255898590865547,-0.1255898590865547,Vmag_get_voltage_magnitude_series__angle_get_voltage_angle_series,true
0.66,-0.1282754627036218,-0.1282754627036218,Vmag_get_voltage_magnitude_series__angle_get_voltage_angle_series,true
0.67,-0.13087466285439614,-0.13087466285439614,Vmag_get_voltage_magnitude_series__angle_get_voltage_angle_series,true
0.68,-0.13339002622956864,-0.13339002622956864,Vmag_get_voltage_magnitude_series__angle_get_voltage_angle_series,true
0.69,-0.1358232722411629,-0.1358232722411629,Vmag_get_voltage_magnitude_series__angle_get_voltage_angle_series,true
0.7,-0.13817542923743142,-0.13817542923743142,Vmag_get_voltage_magnitude_series__angle_get_voltage_angle_series,true
0.71,-0.14044699720609613,-0.14044699720609613,Vmag_get_voltage_magnitude_series__angle_get_voltage_angle_series,true
0.72,-0.14263810889908285,-0.14263810889908285,Vmag_get_voltage_magnitude_series__angle_get_voltage_angle_series,true
0.73,-0.14474867163919256,-0.14474867163919256,Vmag_get_voltage_magnitude_series__angle_get_voltage_angle_series,true
0.74,-0.1467785138510429,-0.1467785138510429,Vmag_get_voltage_magnitude_series__angle_get_voltage_angle_series,true
0.75,-0.14872749670978125,-0.14872749670978125,Vmag_get_voltage_magnitude_series__angle_get_voltage_angle_series,true
0.76,-0.15059562345524077,-0.15059562345524077,Vmag_get_voltage_magnitude_series__angle_get_voltage_angle_series,true
0.77,-0.15238311454223893,-0.15238311454223893,Vmag_get_voltage_magnitude_series__angle_get_voltage_angle_series,true
0.78,-0.15409047740275214,-0.15409047740275214,Vmag_get_voltage_magnitude_series__angle_get_voltage_angle_series,true
0.79,-0.15571855110973598,-0.15571855110973598,Vmag_get_voltage_magnitude_series__angle_get_voltage_angle_series,true
0.8,-0.15726854001774673,-0.15726854001774673,Vmag_get_voltage_magnitude_series__angle_get_voltage_angle_series,true
0.81,-0.1587420322670869,-0.1587420322670869,Vmag_get_voltage_magnitude_series__angle_get_voltage_angle_series,true
0.82,-0.16014099772560197,-0.16014099772560197,Vmag_get_voltage_magnitude_series__angle_get_voltage_angle_series,true
0.83,-0.16146777738690535,-0.16146777738690535,Vmag_get_voltage_magnitude_series__angle_get_voltage_angle_series,true
0.84,-0.16272506517933594,-0.16272506517933594,Vmag_get_voltage_magnitude_series__angle_get_voltage_angle_series,true
0.85,-0.1639158715816859,-0.1639158715816859,Vmag_get_voltage_magnitude_series__angle_get_voltage_angle_series,true
0.86,-0.16504348482638512,-0.16504348482638512,Vmag_get_voltage_magnitude_series__angle_get_voltage_angle_series,true
0.87,-0.16611141986956748,-0.16611141986956748,Vmag_get_voltage_magnitude_series__angle_get_voltage_angle_series,true
0.88,-0.1671233741734328,-0.1671233741734328,Vmag_get_voltage_magnitude_series__angle_get_voltage_angle_series,true
0.89,-0.16808316423581932,-0.16808316423581932,Vmag_get_voltage_magnitude_series__angle_get_voltage_angle_series,true
0.9,-0.16899467576324756,-0.16899467576324756,Vmag_get_voltage_magnitude_series__angle_get_voltage_angle_series,true
0.91,-0.16986180179656465,-0.16986180179656465,Vmag_get_voltage_magnitude_series__angle_get_voltage_angle_series,true
0.92,-0.17068839645437647,-0.17068839645437647,Vmag_get_voltage_magnitude_series__angle_get_voltage_angle_series,true
0.93,-0.17147821997725998,-0.17147821997725998,Vmag_get_voltage_magnitude_series__angle_get_voltage_angle_series,true
0.94,-0.17223490134584915,-0.17223490134584915,Vmag_get_voltage_magnitude_series__angle_get_voltage_angle_series,true
0.95,-0.17296189078293894,-0.17296189078293894,Vmag_get_voltage_magnitude_series__angle_get_voltage_angle_series,true
0.96,-0.17366243456716388,-0.17366243456716388,Vmag_get_voltage_magnitude_series__angle_get_voltage_angle_series,true
0.97,-0.17433954342929855,-0.17433954342929855,Vmag_get_voltage_magnitude_series__angle_get_voltage_angle_series,true
0.98,-0.17499597495807434,-0.17499597495807434,Vmag_get_voltage_magnitude_series__angle_get_voltage_angle_series,true
0.99,-0.17563422458865416,-0.17563422458865416,Vmag_get_voltage_magnitude_series__angle_get_voltage_angle_series,true
1.0,-0.17625651483926164,-0.17625651483926164,Vmag_get_voltage_magnitude_series__angle_get_voltage_angle_series,true
1.01,-0.17686479568420901,-0.17686479568420901,Vmag_get_voltage_magnitude_series__angle_get_voltage_angle_series,true
1.02,-0.17746074782406746,-0.17746074782406746,Vmag_get_voltage_magnitude_series__angle_get_voltage_angle_series,true
1.03,-0.17804579245440827,-0.17804579245440827,Vmag_get_voltage_magnitude_series__angle_get_voltage_angle_series,true
1.04,-0.1786211024246433,-0.1786211024246433,Vmag_get_voltage_magnitude_series__angle_get_voltage_angle_series,true
1.05,-0.17918761796381436,-0.17918761796381436,Vmag_get_voltage_magnitude_series__angle_get_voltage_angle_series,true
1.06,-0.1797460650494113,-0.1797460650494113,Vmag_get_voltage_magnitude_series__angle_get_voltage_angle_series,true
1.07,-0.18029697385309026,-0.18029697385309026,Vmag_get_voltage_magnitude_series__angle_get_voltage_angle_series,true
1.08,-0.18084069990074397,-0.18084069990074397,Vmag_get_voltage_magnitude_series__angle_get_voltage_angle_series,true
1.09,-0.1813774447609775,-0.1813774447609775,Vmag_get_voltage_magnitude_series__angle_get_voltage_angle_series,true
1.1,-0.18190727701269127,-0.18190727701269127,Vmag_get_voltage_magnitude_series__angle_get_voltage_angle_series,true
1.11,-0.1824301536055451,-0.1824301536055451,Vmag_get_voltage_magnitude_series__angle_get_voltage_angle_series,true
1.12,-0.18294593864026912,-0.18294593864026912,Vmag_get_voltage_magnitude_series__angle_get_voltage_angle_series,true
1.13,-0.18345442362919764,-0.18345442362919764,Vmag_get_voltage_magnitude_series__angle_get_voltage_angle_series,true
1.14,-0.1839553452952869,-0.1839553452952869,Vmag_get_voltage_magnitude_series__angle_get_voltage_angle_series,true
1.15,-0.18444840100718704,-0.18444840100718704,Vmag_get_voltage_magnitude_series__angle_get_voltage_angle_series,true
1.16,-0.18493326424910422,-0.18493326424910422,Vmag_get_voltage_magnitude_series__angle_get_voltage_angle_series,true
1.17,-0.18540959825752473,-0.18540959825752473,Vmag_get_voltage_magnitude_series__angle_get_voltage_angle_series,true
1.18,-0.18587706764121756,-0.18587706764121756,Vmag_get_voltage_magnitude_series__angle_get_voltage_angle_series,true
1.19,-0.18633534886037845,-0.18633534886037845,Vmag_get_voltage_magnitude_series__angle_get_voltage_angle_series,true
1.2,-0.18678413919980158,-0.18678413919980158,Vmag_get_voltage_magnitude_series__angle_get_voltage_angle_series,true
1.21,-0.18722316472605996,-0.18722316472605996,Vmag_get_voltage_magnitude_series__angle_get_voltage_angle_series,true
1.22,-0.18765218572009681,-0.18765218572009681,Vmag_get_voltage_magnitude_series__angle_get_voltage_angle_series,true
1.23,-0.1880710019353493,-0.1880710019353493,Vmag_get_voltage_magnitude_series__angle_get_voltage_angle_series,true
1.24,-0.18847945739846358,-0.18847945739846358,Vmag_get_voltage_magnitude_series__angle_get_voltage_angle_series,true
1.25,-0.18887744284934901,-0.18887744284934901,Vmag_get_voltage_magnitude_series__angle_get_voltage_angle_series,true
1.26,-0.18926489799268628,-0.18926489799268628,Vmag_get_voltage_magnitude_series__angle_get_voltage_angle_series,true
1.27,-0.18964181240220188,-0.18964181240220188,Vmag_get_voltage_magnitude_series__angle_get_voltage_angle_series,true
1.28,-0.19000822643538942,-0.19000822643538942,Vmag_get_voltage_magnitude_series__angle_get_voltage_angle_series,true
1.29,-0.19036423097014557,-0.19036423097014557,Vmag_get_voltage_magnitude_series__angle_get_voltage_angle_series,true
1.3,-0.1907099664151701,-0.1907099664151701,Vmag_get_voltage_magnitude_series__angle_get_voltage_angle_series,true
1.31,-0.19104562221892266,-0.19104562221892266,Vmag_get_voltage_magnitude_series__angle_get_voltage_angle_series,true
1.32,-0.1913714336534491,-0.1913714336534491,Vmag_get_voltage_magnitude_series__angle_get_voltage_angle_series,true
1.33,-0.1916876803438264,-0.1916876803438264,Vmag_get_voltage_magnitude_series__angle_get_voltage_angle_series,true
1.34,-0.1919946833209185,-0.1919946833209185,Vmag_get_voltage_magnitude_series__angle_get_voltage_angle_series,true
1.35,-0.19229280139117622,-0.19229280139117622,Vmag_get_voltage_magnitude_series__angle_get_voltage_angle_series,true
1.36,-0.19258242789253532,-0.19258242789253532,Vmag_get_voltage_magnitude_series__angle_get_voltage_angle_series,true
1.37,-0.19286398683735825,-0.19286398683735825,Vmag_get_voltage_magnitude_series__angle_get_voltage_angle_series,true
1.38,-0.1931379278005838,-0.1931379278005838,Vmag_get_voltage_magnitude_series__angle_get_voltage_angle_series,true
1.39,-0.1934047223457934,-0.1934047223457934,Vmag_get_voltage_magnitude_series__angle_get_voltage_angle_series,true
1.4,-0.19366485780922618,-0.19366485780922618,Vmag_get_voltage_magnitude_series__angle_get_voltage_angle_series,true
1.41,-0.19391883393066864,-0.19391883393066864,Vmag_get_voltage_magnitude_series__angle_get_voltage_angle_series,true
1.42,-0.19416715636488888,-0.19416715636488888,Vmag_get_voltage_magnitude_series__angle_get_voltage_angle_series,true
1.43,-0.19441033227727028,-0.19441033227727028,Vmag_get_voltage_magnitude_series__angle_get_voltage_angle_series,true
1.44,-0.194648863979321,-0.194648863979321,Vmag_get_voltage_magnitude_series__angle_get_voltage_angle_series,true
1.45,-0.1948832447434361,-0.1948832447434361,Vmag_get_voltage_magnitude_series__angle_get_voltage_angle_series,true
1.46,-0.1951139532379469,-0.1951139532379469,Vmag_get_voltage_magnitude_series__angle_get_voltage_angle_series,true
1.47,-0.19534144764994066,-0.19534144764994066,Vmag_get_voltage_magnitude_series__angle_get_voltage_angle_series,true
1.48,-0.19556616238476843,-0.19556616238476843,Vmag_get_voltage_magnitude_series__angle_get_voltage_angle_series,true
1.49,-0.19578850246533686,-0.19578850246533686,Vmag_get_voltage_magnitude_series__angle_get_voltage_angle_series,true
1.5,-0.19600883922339785,-0.19600883922339785,Vmag_get_voltage_magnitude_series__angle_get_voltage_angle_series,true
1.51,-0.1962275066609356,-0.1962275066609356,Vmag_get_voltage_magnitude_series__angle_get_voltage_angle_series,true
1.52,-0.19644479795560932,-0.19644479795560932,Vmag_get_voltage_magnitude_series__angle_get_voltage_angle_series,true
1.53,-0.19666096262037772,-0.19666096262037772,Vmag_get_voltage_magnitude_series__angle_get_voltage_angle_series,true
1.54,-0.1968762038161555,-0.1968762038161555,Vmag_get_voltage_magnitude_series__angle_get_voltage_angle_series,true
1.55,-0.19709067616408385,-0.19709067616408385,Vmag_get_voltage_magnitude_series__angle_get_voltage_angle_series,true
1.56,-0.19730448425068003,-0.19730448425068003,Vmag_get_voltage_magnitude_series__angle_get_voltage_angle_series,true
1.57,-0.19751768206346776,-0.19751768206346776,Vmag_get_voltage_magnitude_series__angle_get_voltage_angle_series,true
1.58,-0.19773027242231164,-0.19773027242231164,Vmag_get_voltage_magnitude_series__angle_get_voltage_angle_series,true
1.59,-0.197942207296199,-0.197942207296199,Vmag_get_voltage_magnitude_series__angle_get_voltage_angle_series,true
1.6,-0.19815338816735492,-0.19815338816735492,Vmag_get_voltage_magnitude_series__angle_get_voltage_angle_series,true
1.61,-0.19836366775299683,-0.19836366775299683,Vmag_get_voltage_magnitude_series__angle_get_voltage_angle_series,true
1.62,-0.19857285120525617,-0.19857285120525617,Vmag_get_voltage_magnitude_series__angle_get_voltage_angle_series,true
1.63,-0.19878069937637385,-0.19878069937637385,Vmag_get_voltage_magnitude_series__angle_get_voltage_angle_series,true
1.64,-0.19898693016334834,-0.19898693016334834,Vmag_get_voltage_magnitude_series__angle_get_voltage_angle_series,true
1.65,-0.19919122299067749,-0.19919122299067749,Vmag_get_voltage_magnitude_series__angle_get_voltage_angle_series,true
1.66,-0.1993932213304135,-0.1993932213304135,Vmag_get_voltage_magnitude_series__angle_get_voltage_angle_series,true
1.67,-0.1995925368059244,-0.1995925368059244,Vmag_get_voltage_magnitude_series__angle_get_voltage_angle_series,true
1.68,-0.1997887531965812,-0.1997887531965812,Vmag_get_voltage_magnitude_series__angle_get_voltage_angle_series,true
1.69,-0.19998143076463504,-0.19998143076463504,Vmag_get_voltage_magnitude_series__angle_get_voltage_angle_series,true
1.7,-0.20017011103057808,-0.20017011103057808,Vmag_get_voltage_magnitude_series__angle_get_voltage_angle_series,true
1.71,-0.20035432117644492,-0.20035432117644492,Vmag_get_voltage_magnitude_series__angle_get_voltage_angle_series,true
1.72,-0.20053357820920215,-0.20053357820920215,Vmag_get_voltage_magnitude_series__angle_get_voltage_angle_series,true
1.73,-0.20070739441611693,-0.20070739441611693,Vmag_get_voltage_magnitude_series__angle_get_voltage_angle_series,true
1.74,-0.20087528153102274,-0.20087528153102274,Vmag_get_voltage_magnitude_series__angle_get_voltage_angle_series,true
1.75,-0.20103675546216693,-0.20103675546216693,Vmag_get_voltage_magnitude_series__angle_get_voltage_angle_series,true
1.76,-0.20119134098772212,-0.20119134098772212,Vmag_get_voltage_magnitude_series__angle_get_voltage_angle_series,true
1.77,-0.20133857604041033,-0.20133857604041033,Vmag_get_voltage_magnitude_series__angle_get_voltage_angle_series,true
1.78,-0.2014780151749449,-0.2014780151749449,Vmag_get_voltage_magnitude_series__angle_get_voltage_angle_series,true
1.79,-0.20160923387832977,-0.20160923387832977,Vmag_get_voltage_magnitude_series__angle_get_voltage_angle_series,true
1.8,-0.20173183265415034,-0.20173183265415034,Vmag_get_voltage_magnitude_series__angle_get_voltage_angle_series,true
1.81,-0.20184543939388017,-0.20184543939388017,Vmag_get_voltage_magnitude_series__angle_get_voltage_angle_series,true
1.82,-0.20194971270616255,-0.20194971270616255,Vmag_get_voltage_magnitude_series__angle_get_voltage_angle_series,true
1.83,-0.20204434509315247,-0.20204434509315247,Vmag_get_voltage_magnitude_series__angle_get_voltage_angle_series,true
1.84,-0.20212906422298835,-0.20212906422298835,Vmag_get_voltage_magnitude_series__angle_get_voltage_angle_series,true
1.85,-0.20220363546846623,-0.20220363546846623,Vmag_get_voltage_magnitude_series__angle_get_voltage_angle_series,true
1.86,-0.20226786320794302,-0.20226786320794302,Vmag_get_voltage_magnitude_series__angle_get_voltage_angle_series,true
1.87,-0.20232159197042254,-0.20232159197042254,Vmag_get_voltage_magnitude_series__angle_get_voltage_angle_series,true
1.88,-0.2023647069498256,-0.2023647069498256,Vmag_get_voltage_magnitude_series__angle_get_voltage_angle_series,true
1.89,-0.20239713458352027,-0.20239713458352027,Vmag_get_voltage_magnitude_series__angle_get_voltage_angle_series,true
1.9,-0.202418842432805,-0.202418842432805,Vmag_get_voltage_magnitude_series__angle_get_voltage_angle_series,true
1.91,-0.20242983867950998,-0.20242983867950998,Vmag_get_voltage_magnitude_series__angle_get_voltage_angle_series,true
1.92,-0.202430171433016,-0.202430171433016,Vmag_get_voltage_magnitude_series__angle_get_voltage_angle_series,true
1.93,-0.20241992750923024,-0.20241992750923024,Vmag_get_voltage_magnitude_series__angle_get_voltage_angle_series,true
1.94,-0.20239923134074533,-0.20239923134074533,Vmag_get_voltage_magnitude_series__angle_get_voltage_angle_series,true
1.95,-0.20236824269769732,-0.20236824269769732,Vmag_get_voltage_magnitude_series__angle_get_voltage_angle_series,true
1.96,-0.2023271551024875,-0.2023271551024875,Vmag_get_voltage_magnitude_series__angle_get_voltage_angle_series,true
1.97,-0.2022761935582613,-0.2022761935582613,Vmag_get_voltage_magnitude_series__angle_get_voltage_angle_series,true
1.98,-0.2022156121440877,-0.2022156121440877,Vmag_get_voltage_magnitude_series__angle_get_voltage_angle_series,true
1.99,-0.20214569144063557,-0.20214569144063557,Vmag_get_voltage_magnitude_series__angle_get_voltage_angle_series,true
...
